*Node, NSET=NALL
1, 0.25, 0.0, 0.0
2, 0.285, 0.0, 0.0
3, 0.32, 0.0, 0.0
4, 0.355, 0.0, 0.0
5, 0.39, 0.0, 0.0
6, 0.425, 0.0, 0.0
7, 0.46, 0.0, 0.0
8, 0.495, 0.0, 0.0
9, 0.53, 0.0, 0.0
10, 0.565, 0.0, 0.0
11, 0.6, 0.0, 0.0
*Element, type=B31, ELSET=EALL
 1,  1,  2
 2,  2,  3
 3,  3,  4
 4,  4,  5
 5,  5,  6
 6,  6,  7
 7,  7,  8
 8,  8,  9
 9,  9, 10
10, 10, 11
*Beam Section, elset=EALL, material=Material-1, section=RECT
0.02, 0.02
0.d0,0.d0,-1.d0
*Material, name=Material-1
*Elastic
 1.6e+06, 0.4999
*Boundary
NALL, 3, 3
NALL, 4, 4
NALL, 5, 5
*Boundary
1, 1, 6
*INITIAL CONDITIONS, TYPE=STRESS
1,1,1094599000.0,-1082321000.0,-457448200.0,-358898.0,123720.9,-216511.6
1,2,3259282000.0,1082266000.0,1708005000.0,-358898.0,123720.9,216511.6
1,3,-1126060000.0,1082362000.0,457488800.0,-358898.0,-123720.9,-216511.6
1,4,-3290742000.0,-1082417000.0,-1708156000.0,-358898.0,-123720.9,216511.6
1,5,1094599000.0,-1082321000.0,-457448200.0,-358898.0,-123720.9,216511.6
1,6,3259282000.0,1082266000.0,1708005000.0,-358898.0,-123720.9,-216511.6
1,7,-1126060000.0,1082362000.0,457488800.0,-358898.0,123720.9,216511.6
1,8,-3290742000.0,-1082417000.0,-1708156000.0,-358898.0,123720.9,-216511.6
2,1,-1079209000.0,-3245329000.0,-2622277000.0,-353569.0,370973.8,-649204.1
2,2,5411533000.0,3245477000.0,3871126000.0,-353569.0,370973.8,649204.1
2,3,1048008000.0,3245413000.0,2622361000.0,-353569.0,-370973.8,-649204.1
2,4,-5442734000.0,-3245266000.0,-3870915000.0,-353569.0,-370973.8,649204.1
2,5,-1079209000.0,-3245329000.0,-2622277000.0,-353569.0,-370973.8,649204.1
2,6,5411533000.0,3245477000.0,3871126000.0,-353569.0,-370973.8,-649204.1
2,7,1048008000.0,3245413000.0,2622361000.0,-353569.0,370973.8,649204.1
2,8,-5442734000.0,-3245266000.0,-3870915000.0,-353569.0,370973.8,-649204.1
3,1,-3258484000.0,-5405474000.0,-4783970000.0,-345927.7,617902.2,-1081329.0
3,2,7552641000.0,5404797000.0,6030625000.0,-345927.7,617902.2,1081329.0
3,3,3227829000.0,5405651000.0,4784148000.0,-345927.7,-617902.2,-1081329.0
3,4,-7583296000.0,-5406329000.0,-6032157000.0,-345927.7,-617902.2,1081329.0
** ... 60 like lines cut
*Step
*Static
*Cload
2, 1, -12465.06274
2, 2, 9.147398058
3, 1, -29129.06467
3, 2, 12.39830151
4, 1, -522812.4535
4, 2, 99.82525047
5, 1, -1143275.139
5, 2, -0.7793783225
6, 1, -205431.791
6, 2, -13.92090675
7, 1, 5675.26539
7, 2, 0.3598931268
8, 1, -7468.570301
8, 2, -0.4738131852
9, 1, -14662.76042
9, 2, -0.9318750752
10, 1, -2096.105757
10, 2, -0.1319407878
11, 1, -0.05448832839
*Cload
2, 6, -1130613.911
3, 6, -2780771.291
4, 6, -101675936.8
5, 6, -307701713.6
6, 6, -61695866.0
7, 6, 2195786.113
8, 6, -2276098.479
9, 6, -2701072.833
10, 6, 10595.73839
*NODE FILE,OUTPUT=2D
U
*EL PRINT,ELSET=Eall,FREQUENCY=100
S
*END STEP